!--- OpenDSS Linecodes file generated from Show LINECONSTANTS command
!--- Frequency = 60 Hz, Earth resistivity = 100 ohm-m
!--- Earth Model = Carson

New Linecode.4wire nphases=3  Units=mi
~ Rmatrix=[0.457552 |0.155951  0.466628 |0.153485  0.158007  0.461473 ]
~ Xmatrix=[100.07805  |0.51679   1.04818  |0.384938  0.423653  1.06507  ]
~ Cmatrix=[15.0675  |-4.86254  15.8754  |-1.85328  -3.09107  14.3258  ]
